Version 4.1
SHEET 1 880 680
WIRE 64 64 64 48
WIRE 208 64 208 48
WIRE 64 176 64 144
WIRE 208 176 208 144
WIRE 208 176 64 176
SYMBOL ind 48 64 R270
WINDOW 0 32 56 VTop 2
WINDOW 3 5 56 VBottom 2
SYMATTR InstName L1
SYMATTR Value 220µ
SYMBOL res 192 48 R0
SYMATTR InstName R1
SYMATTR Value 10
SYMBOL cap 208 32 R90
WINDOW 0 0 32 VBottom 2
WINDOW 3 32 32 VTop 2
SYMATTR InstName C1
SYMATTR Value 1n
SYMBOL voltage 64 48 R0
WINDOW 123 0 0 Left 0
WINDOW 39 0 0 Left 0
SYMATTR InstName V1
SYMATTR Value PULSE(0 10 0 0 0 5)
TEXT 232 0 VLeft 2 !.tran 0 10 5 0.0001
